PV_Scenarios/PV_combined/scenario_7_combined/PV_combined80per.txt
New PVSystem.PV_1 phases=1 bus1=G2000SK7800_N274150_sec_2.2 kV=0.24 kVA=6.6 irradiance=1 Pmpp=5.5 %cutin=0.1 %cutout=0.1
New PVSystem.PV_2 phases=1 bus1=G2000SK7800_N274150_sec_3.2 kV=0.24 kVA=6 irradiance=1 Pmpp=5 %cutin=0.1 %cutout=0.1
New PVSystem.PV_3 phases=1 bus1=G2000SN8400_N274183_sec_2.3 kV=0.24 kVA=6.24 irradiance=1 Pmpp=5.2 %cutin=0.1 %cutout=0.1
New PVSystem.PV_4 phases=1 bus1=G2000UI5400_N283699_sec_5.3 kV=0.24 kVA=3.96 irradiance=1 Pmpp=3.3 %cutin=0.1 %cutout=0.1
New PVSystem.PV_5 phases=1 bus1=G2000WM0100_N283809_sec_1.3 kV=0.24 kVA=3.96 irradiance=1 Pmpp=3.3 %cutin=0.1 %cutout=0.1
New PVSystem.PV_6 phases=1 bus1=G2000XE9500_N283544_sec_2.3 kV=0.24 kVA=2.88 irradiance=1 Pmpp=2.4 %cutin=0.1 %cutout=0.1
New PVSystem.PV_7 phases=1 bus1=G2000YI1900_N283701_sec_1.1 kV=0.24 kVA=4.56 irradiance=1 Pmpp=3.8 %cutin=0.1 %cutout=0.1
New PVSystem.PV_8 phases=1 bus1=G2001RM3600_N274547_sec_5.2 kV=0.24 kVA=17.2015 irradiance=1 Pmpp=14.3346 %cutin=0.1 %cutout=0.1
New PVSystem.PV_9 phases=1 bus1=G2001TD6700_N274321_sec_4.3 kV=0.24 kVA=5.16 irradiance=1 Pmpp=4.3 %cutin=0.1 %cutout=0.1
New PVSystem.PV_10 phases=1 bus1=G2001UE1100_N284038_sec_2.3 kV=0.24 kVA=5.64 irradiance=1 Pmpp=4.7 %cutin=0.1 %cutout=0.1
New PVSystem.PV_11 phases=1 bus1=G2001UE3900_N284081_sec_1.3 kV=0.24 kVA=2.88 irradiance=1 Pmpp=2.4 %cutin=0.1 %cutout=0.1
New PVSystem.PV_12 phases=1 bus1=G2001VD6400_N283955_sec_5.3 kV=0.24 kVA=2.76 irradiance=1 Pmpp=2.3 %cutin=0.1 %cutout=0.1
New PVSystem.PV_13 phases=1 bus1=G2001WB8800_N283948_sec_5.3 kV=0.24 kVA=5.4 irradiance=1 Pmpp=4.5 %cutin=0.1 %cutout=0.1
New PVSystem.PV_14 phases=1 bus1=G2001WB9000_N283924_sec_5.3 kV=0.24 kVA=3.12 irradiance=1 Pmpp=2.6 %cutin=0.1 %cutout=0.1
New PVSystem.PV_15 phases=1 bus1=G2001WE7200_N1300454_sec_2.1 kV=0.24 kVA=4.32 irradiance=1 Pmpp=3.6 %cutin=0.1 %cutout=0.1
New PVSystem.PV_16 phases=1 bus1=G2001XC7500_N283961_sec_2.3 kV=0.24 kVA=4.32 irradiance=1 Pmpp=3.6 %cutin=0.1 %cutout=0.1
New PVSystem.PV_17 phases=1 bus1=G2100AE4800_N283558_sec_8.3 kV=0.24 kVA=0.6 irradiance=1 Pmpp=0.5 %cutin=0.1 %cutout=0.1
New PVSystem.PV_18 phases=1 bus1=G2100AG8700_N283594_sec_3.3 kV=0.24 kVA=3.24 irradiance=1 Pmpp=2.7 %cutin=0.1 %cutout=0.1
New PVSystem.PV_19 phases=1 bus1=G2100AM8100_N283813_sec_1.1 kV=0.24 kVA=4.32 irradiance=1 Pmpp=3.6 %cutin=0.1 %cutout=0.1
New PVSystem.PV_20 phases=1 bus1=G2100AM9800_N283829_sec_4.1 kV=0.24 kVA=7.68 irradiance=1 Pmpp=6.4 %cutin=0.1 %cutout=0.1
New PVSystem.PV_21 phases=1 bus1=G2100BH6100_N283623_sec_2.3 kV=0.24 kVA=3 irradiance=1 Pmpp=2.5 %cutin=0.1 %cutout=0.1
New PVSystem.PV_22 phases=1 bus1=G2100BJ0700_N283696_sec_9.2 kV=0.24 kVA=8.04 irradiance=1 Pmpp=6.7 %cutin=0.1 %cutout=0.1
New PVSystem.PV_23 phases=1 bus1=G2100CH7400_N283632_sec_22.3 kV=0.24 kVA=1.08 irradiance=1 Pmpp=0.9 %cutin=0.1 %cutout=0.1
New PVSystem.PV_24 phases=1 bus1=G2100CI1500_N283687_sec_4.2 kV=0.24 kVA=12.12 irradiance=1 Pmpp=10.1 %cutin=0.1 %cutout=0.1
New PVSystem.PV_25 phases=1 bus1=G2100CL7400_N283783_sec_2.1 kV=0.24 kVA=4.5949 irradiance=1 Pmpp=3.829 %cutin=0.1 %cutout=0.1
New PVSystem.PV_26 phases=1 bus1=G2100CO8200_N283869_sec_2.3 kV=0.24 kVA=0.96 irradiance=1 Pmpp=0.8 %cutin=0.1 %cutout=0.1
New PVSystem.PV_27 phases=1 bus1=G2100DG3700_N283614_sec_17.3 kV=0.24 kVA=2.88 irradiance=1 Pmpp=2.4 %cutin=0.1 %cutout=0.1
New PVSystem.PV_28 phases=1 bus1=G2100DG6300_N283589_sec_2.3 kV=0.24 kVA=2.52 irradiance=1 Pmpp=2.1 %cutin=0.1 %cutout=0.1
New PVSystem.PV_29 phases=1 bus1=G2100DJ7200_N292334_sec_1.2 kV=0.24 kVA=10.56 irradiance=1 Pmpp=8.8 %cutin=0.1 %cutout=0.1
New PVSystem.PV_30 phases=1 bus1=G2100DM3200_N283818_sec_2.3 kV=0.24 kVA=2.76 irradiance=1 Pmpp=2.3 %cutin=0.1 %cutout=0.1
New PVSystem.PV_31 phases=1 bus1=G2100EG8500_N292275_sec_6.3 kV=0.24 kVA=2.88 irradiance=1 Pmpp=2.4 %cutin=0.1 %cutout=0.1
New PVSystem.PV_32 phases=1 bus1=G2100EO1300_N292510_sec_4.3 kV=0.24 kVA=0.24 irradiance=1 Pmpp=0.2 %cutin=0.1 %cutout=0.1
New PVSystem.PV_33 phases=1 bus1=G2100FI2200_N292320_sec_2.2 kV=0.24 kVA=6.12 irradiance=1 Pmpp=5.1 %cutin=0.1 %cutout=0.1
New PVSystem.PV_34 phases=3 conn = delta bus1=G2100FJ3800_N292380_sec_5.1.2.3 kV=0.48 kVA=12 irradiance=1 Pmpp=10 %cutin=0.1 %cutout=0.1
New PVSystem.PV_35 phases=3 conn = delta bus1=G2100FJ3800_N292380_sec_8.1.2.3 kV=0.48 kVA=5.64 irradiance=1 Pmpp=4.7 %cutin=0.1 %cutout=0.1
New PVSystem.PV_36 phases=3 conn = delta bus1=G2100GI5400_N292325_sec_5.1.2.3 kV=0.48 kVA=6.48 irradiance=1 Pmpp=5.4 %cutin=0.1 %cutout=0.1
New PVSystem.PV_37 phases=1 bus1=G2100GM9700_N292423_sec_28.3 kV=0.24 kVA=0.36 irradiance=1 Pmpp=0.3 %cutin=0.1 %cutout=0.1
New PVSystem.PV_38 phases=1 bus1=G2100HM9900_N292433_sec_26.3 kV=0.24 kVA=2.16 irradiance=1 Pmpp=1.8 %cutin=0.1 %cutout=0.1
New PVSystem.PV_39 phases=1 bus1=G2100HM9900_N292433_sec_37.3 kV=0.24 kVA=4.32 irradiance=1 Pmpp=3.6 %cutin=0.1 %cutout=0.1
New PVSystem.PV_40 phases=3 conn = delta bus1=G2100HN2600_N292488_sec_9.1.2.3 kV=0.48 kVA=3.24 irradiance=1 Pmpp=2.7 %cutin=0.1 %cutout=0.1
New PVSystem.PV_41 phases=1 bus1=G2100HN5600_N292453_sec_34.3 kV=0.24 kVA=1.2 irradiance=1 Pmpp=1 %cutin=0.1 %cutout=0.1
New PVSystem.PV_42 phases=1 bus1=G2100IL1000_N292412_sec_13.3 kV=0.24 kVA=0.48 irradiance=1 Pmpp=0.4 %cutin=0.1 %cutout=0.1
New PVSystem.PV_43 phases=1 bus1=G2100IL1000_N292412_sec_29.3 kV=0.24 kVA=2.04 irradiance=1 Pmpp=1.7 %cutin=0.1 %cutout=0.1
New PVSystem.PV_44 phases=1 bus1=G2100IN2700_N292475_sec_21.3 kV=0.24 kVA=5.28 irradiance=1 Pmpp=4.4 %cutin=0.1 %cutout=0.1
New PVSystem.PV_45 phases=3 conn = delta bus1=G2100NI4800_N300455_sec_3.1.2.3 kV=0.48 kVA=23.4306 irradiance=1 Pmpp=19.5255 %cutin=0.1 %cutout=0.1
New PVSystem.PV_46 phases=1 bus1=G2100PO1400_N300580_sec_4.1 kV=0.24 kVA=4.0807 irradiance=1 Pmpp=3.4006 %cutin=0.1 %cutout=0.1
New PVSystem.PV_47 phases=1 bus1=G2100QO6100_N300566_sec_3.2 kV=0.24 kVA=4.92 irradiance=1 Pmpp=4.1 %cutin=0.1 %cutout=0.1
New PVSystem.PV_48 phases=1 bus1=G2100RM5200_N312343_sec_7.3 kV=0.24 kVA=3 irradiance=1 Pmpp=2.5 %cutin=0.1 %cutout=0.1
New PVSystem.PV_49 phases=1 bus1=G2100RN1800_N300557_sec_1.3 kV=0.24 kVA=4.92 irradiance=1 Pmpp=4.1 %cutin=0.1 %cutout=0.1
New PVSystem.PV_50 phases=1 bus1=G2100RO0400_N300576_sec_5.3 kV=0.24 kVA=2.04 irradiance=1 Pmpp=1.7 %cutin=0.1 %cutout=0.1
New PVSystem.PV_51 phases=1 bus1=G2100SO3700_N312462_sec_2.3 kV=0.24 kVA=2.88 irradiance=1 Pmpp=2.4 %cutin=0.1 %cutout=0.1
New PVSystem.PV_52 phases=1 bus1=G2100SP2100_N312536_sec_3.2 kV=0.24 kVA=10.08 irradiance=1 Pmpp=8.4 %cutin=0.1 %cutout=0.1
New PVSystem.PV_53 phases=1 bus1=G2101AC8300_N283970_sec_3.2 kV=0.24 kVA=6.6 irradiance=1 Pmpp=5.5 %cutin=0.1 %cutout=0.1
New PVSystem.PV_54 phases=1 bus1=G2101AC8800_N283998_sec_3.2 kV=0.24 kVA=4.2475 irradiance=1 Pmpp=3.5396 %cutin=0.1 %cutout=0.1
New PVSystem.PV_55 phases=1 bus1=G2101AJ7700_N284211_sec_1.1 kV=0.24 kVA=4.2143 irradiance=1 Pmpp=3.5119 %cutin=0.1 %cutout=0.1
New PVSystem.PV_56 phases=1 bus1=G2101BA6700_N283900_sec_5.1 kV=0.24 kVA=5.16 irradiance=1 Pmpp=4.3 %cutin=0.1 %cutout=0.1
New PVSystem.PV_57 phases=1 bus1=G2101BB3500_N283890_sec_3.1 kV=0.24 kVA=12.84 irradiance=1 Pmpp=10.7 %cutin=0.1 %cutout=0.1
New PVSystem.PV_58 phases=1 bus1=G2101BC7200_N283931_sec_7.1 kV=0.24 kVA=3.72 irradiance=1 Pmpp=3.1 %cutin=0.1 %cutout=0.1
New PVSystem.PV_59 phases=1 bus1=G2101BC7200_N283931_sec_15.1 kV=0.24 kVA=3 irradiance=1 Pmpp=2.5 %cutin=0.1 %cutout=0.1
New PVSystem.PV_60 phases=1 bus1=G2101BD7000_N283957_sec_2.3 kV=0.24 kVA=5.04 irradiance=1 Pmpp=4.2 %cutin=0.1 %cutout=0.1
New PVSystem.PV_61 phases=1 bus1=G2101CB3400_N283931_sec_3.1 kV=0.24 kVA=3.12 irradiance=1 Pmpp=2.6 %cutin=0.1 %cutout=0.1
New PVSystem.PV_62 phases=1 bus1=G2101CB7700_N283923_sec_2.1 kV=0.24 kVA=3.72 irradiance=1 Pmpp=3.1 %cutin=0.1 %cutout=0.1
New PVSystem.PV_63 phases=1 bus1=G2101DH1100_N284130_sec_1.3 kV=0.24 kVA=7.68 irradiance=1 Pmpp=6.4 %cutin=0.1 %cutout=0.1
New PVSystem.PV_64 phases=3 conn = delta bus1=G2101FB7500_N292570_sec_1.1.2.3 kV=0.48 kVA=106.5794 irradiance=1 Pmpp=88.8162 %cutin=0.1 %cutout=0.1
New PVSystem.PV_65 phases=1 bus1=G2101FC8400_N292612_sec_17.2 kV=0.24 kVA=3.72 irradiance=1 Pmpp=3.1 %cutin=0.1 %cutout=0.1
New PVSystem.PV_66 phases=1 bus1=G2101GD5100_N292637_sec_13.1 kV=0.24 kVA=1.92 irradiance=1 Pmpp=1.6 %cutin=0.1 %cutout=0.1
New PVSystem.PV_67 phases=3 conn = delta bus1=G2101HA2400_N292547_sec_1.1.2.3 kV=0.48 kVA=38.64 irradiance=1 Pmpp=32.2 %cutin=0.1 %cutout=0.1
New PVSystem.PV_68 phases=1 bus1=G2101HD2900_N292658_sec_9.1 kV=0.24 kVA=2.28 irradiance=1 Pmpp=1.9 %cutin=0.1 %cutout=0.1
New PVSystem.PV_69 phases=1 bus1=G2101IJ4900_N292825_sec_4.3 kV=0.24 kVA=5.04 irradiance=1 Pmpp=4.2 %cutin=0.1 %cutout=0.1
New PVSystem.PV_70 phases=3 conn = delta bus1=G2101JA6700_N1321243_sec_10.1.2.3 kV=0.48 kVA=12 irradiance=1 Pmpp=10 %cutin=0.1 %cutout=0.1
New PVSystem.PV_71 phases=1 bus1=G2101KA0900_N300672_sec_18.1 kV=0.24 kVA=3.84 irradiance=1 Pmpp=3.2 %cutin=0.1 %cutout=0.1
New PVSystem.PV_72 phases=1 bus1=G2101KA3900_N300679_sec_4.1 kV=0.24 kVA=2.76 irradiance=1 Pmpp=2.3 %cutin=0.1 %cutout=0.1
New PVSystem.PV_73 phases=1 bus1=G2101PC1800_N300764_sec_2.3 kV=0.24 kVA=1.2 irradiance=1 Pmpp=1 %cutin=0.1 %cutout=0.1
New PVSystem.PV_74 phases=1 bus1=G2101QB0400_N300714_sec_2.3 kV=0.24 kVA=6.36 irradiance=1 Pmpp=5.3 %cutin=0.1 %cutout=0.1
New PVSystem.PV_75 phases=1 bus1=G2101QC1100_N300736_sec_4.3 kV=0.24 kVA=5.76 irradiance=1 Pmpp=4.8 %cutin=0.1 %cutout=0.1
New PVSystem.PV_76 phases=1 bus1=G2101TB9300_N312558_sec_3.2 kV=0.24 kVA=10.68 irradiance=1 Pmpp=8.9 %cutin=0.1 %cutout=0.1
New PVSystem.PV_77 phases=1 bus1=G2102AA7100_N284314_sec_3.1 kV=0.24 kVA=11.565 irradiance=1 Pmpp=9.6375 %cutin=0.1 %cutout=0.1
New PVSystem.PV_78 phases=1 bus1=G2102DE7300_N284356_sec_1.1 kV=0.24 kVA=3.6 irradiance=1 Pmpp=3 %cutin=0.1 %cutout=0.1
New PVSystem.PV_79 phases=1 bus1=G2000SO1800_N274227_sec_1.3 kV=0.24 kVA=6 irradiance=1 Pmpp=5 %cutin=0.1 %cutout=0.1
New PVSystem.PV_80 phases=1 bus1=G2000UI3100_N283702_sec_2.3 kV=0.24 kVA=2.4 irradiance=1 Pmpp=2 %cutin=0.1 %cutout=0.1
New PVSystem.PV_81 phases=1 bus1=G2000UL3200_N283772_sec_3.2 kV=0.24 kVA=3.196 irradiance=1 Pmpp=2.6633 %cutin=0.1 %cutout=0.1
New PVSystem.PV_82 phases=1 bus1=G2000VM6800_N283833_sec_1.2 kV=0.24 kVA=6.48 irradiance=1 Pmpp=5.4 %cutin=0.1 %cutout=0.1
New PVSystem.PV_83 phases=1 bus1=G2000VM6800_N283833_sec_2.2 kV=0.24 kVA=10.56 irradiance=1 Pmpp=8.8 %cutin=0.1 %cutout=0.1
New PVSystem.PV_84 phases=1 bus1=G2000WM6400_N283824_sec_5.3 kV=0.24 kVA=2.76 irradiance=1 Pmpp=2.3 %cutin=0.1 %cutout=0.1
New PVSystem.PV_85 phases=1 bus1=G2000WO2300_N283902_sec_2.3 kV=0.24 kVA=3.84 irradiance=1 Pmpp=3.2 %cutin=0.1 %cutout=0.1
New PVSystem.PV_86 phases=1 bus1=G2000XE9500_N283544_sec_6.3 kV=0.24 kVA=0.36 irradiance=1 Pmpp=0.3 %cutin=0.1 %cutout=0.1
New PVSystem.PV_87 phases=1 bus1=G2000XO7000_N283918_sec_1.3 kV=0.24 kVA=4.92 irradiance=1 Pmpp=4.1 %cutin=0.1 %cutout=0.1
New PVSystem.PV_88 phases=1 bus1=G2000XO7000_N283918_sec_7.3 kV=0.24 kVA=5.64 irradiance=1 Pmpp=4.7 %cutin=0.1 %cutout=0.1
New PVSystem.PV_89 phases=1 bus1=G2001RG8800_N274396_sec_1.2 kV=0.24 kVA=9.12 irradiance=1 Pmpp=7.6 %cutin=0.1 %cutout=0.1
New PVSystem.PV_90 phases=1 bus1=G2001SA1700_N274258_sec_4.3 kV=0.24 kVA=2.88 irradiance=1 Pmpp=2.4 %cutin=0.1 %cutout=0.1
New PVSystem.PV_91 phases=1 bus1=G2001SB6900_N274277_sec_1.3 kV=0.24 kVA=6 irradiance=1 Pmpp=5 %cutin=0.1 %cutout=0.1
New PVSystem.PV_92 phases=1 bus1=G2001SB8200_N274258_sec_5.3 kV=0.24 kVA=3.4595 irradiance=1 Pmpp=2.8829 %cutin=0.1 %cutout=0.1
New PVSystem.PV_93 phases=1 bus1=G2001TA6400_N274237_sec_4.3 kV=0.24 kVA=5.28 irradiance=1 Pmpp=4.4 %cutin=0.1 %cutout=0.1
New PVSystem.PV_94 phases=1 bus1=G2001UB4400_N283904_sec_5.3 kV=0.24 kVA=2.88 irradiance=1 Pmpp=2.4 %cutin=0.1 %cutout=0.1
New PVSystem.PV_95 phases=1 bus1=G2001UD9000_N283927_sec_3.3 kV=0.24 kVA=5.28 irradiance=1 Pmpp=4.4 %cutin=0.1 %cutout=0.1
New PVSystem.PV_96 phases=1 bus1=G2001VI5200_N284181_sec_4.2 kV=0.24 kVA=6.84 irradiance=1 Pmpp=5.7 %cutin=0.1 %cutout=0.1
New PVSystem.PV_97 phases=1 bus1=G2001VI5200_N284181_sec_6.2 kV=0.24 kVA=10.92 irradiance=1 Pmpp=9.1 %cutin=0.1 %cutout=0.1
New PVSystem.PV_98 phases=1 bus1=G2001WB8800_N283948_sec_7.3 kV=0.24 kVA=6.6 irradiance=1 Pmpp=5.5 %cutin=0.1 %cutout=0.1
New PVSystem.PV_99 phases=1 bus1=G2001WE7200_N1300454_sec_1.1 kV=0.24 kVA=0.12 irradiance=1 Pmpp=0.1 %cutin=0.1 %cutout=0.1
New PVSystem.PV_100 phases=1 bus1=G2001WF7000_N284116_sec_1.3 kV=0.24 kVA=7.08 irradiance=1 Pmpp=5.9 %cutin=0.1 %cutout=0.1
New PVSystem.PV_101 phases=1 bus1=G2001WJ5200_N284200_sec_1.2 kV=0.24 kVA=7.0533 irradiance=1 Pmpp=5.8777 %cutin=0.1 %cutout=0.1
New PVSystem.PV_102 phases=1 bus1=G2001XH0700_N284168_sec_2.3 kV=0.24 kVA=8.88 irradiance=1 Pmpp=7.4 %cutin=0.1 %cutout=0.1
New PVSystem.PV_103 phases=1 bus1=G2001XJ8800_N284203_sec_1.3 kV=0.24 kVA=6.12 irradiance=1 Pmpp=5.1 %cutin=0.1 %cutout=0.1
New PVSystem.PV_104 phases=1 bus1=G2100AF5900_N283577_sec_5.3 kV=0.24 kVA=2.88 irradiance=1 Pmpp=2.4 %cutin=0.1 %cutout=0.1
New PVSystem.PV_105 phases=1 bus1=G2100BI5900_N283697_sec_2.1 kV=0.24 kVA=4.56 irradiance=1 Pmpp=3.8 %cutin=0.1 %cutout=0.1
New PVSystem.PV_106 phases=1 bus1=G2100BL8300_N283778_sec_8.1 kV=0.24 kVA=0.84 irradiance=1 Pmpp=0.7 %cutin=0.1 %cutout=0.1
New PVSystem.PV_107 phases=1 bus1=G2100CN4900_N283858_sec_4.3 kV=0.24 kVA=3.12 irradiance=1 Pmpp=2.6 %cutin=0.1 %cutout=0.1
New PVSystem.PV_108 phases=1 bus1=G2100CN4900_N283858_sec_5.3 kV=0.24 kVA=2.52 irradiance=1 Pmpp=2.1 %cutin=0.1 %cutout=0.1
New PVSystem.PV_109 phases=1 bus1=G2100DK1500_N283758_sec_3.2 kV=0.24 kVA=6.48 irradiance=1 Pmpp=5.4 %cutin=0.1 %cutout=0.1
New PVSystem.PV_110 phases=1 bus1=G2100DN3000_N283838_sec_16.3 kV=0.24 kVA=1.68 irradiance=1 Pmpp=1.4 %cutin=0.1 %cutout=0.1
New PVSystem.PV_111 phases=1 bus1=G2100DN4800_N283861_sec_29.3 kV=0.24 kVA=2.4 irradiance=1 Pmpp=2 %cutin=0.1 %cutout=0.1
New PVSystem.PV_112 phases=1 bus1=G2100EK2800_N292334_sec_3.2 kV=0.24 kVA=5.76 irradiance=1 Pmpp=4.8 %cutin=0.1 %cutout=0.1
New PVSystem.PV_113 phases=1 bus1=G2100EK8800_N292347_sec_6.2 kV=0.24 kVA=6.48 irradiance=1 Pmpp=5.4 %cutin=0.1 %cutout=0.1
New PVSystem.PV_114 phases=1 bus1=G2100EN2200_N292457_sec_2.3 kV=0.24 kVA=4.32 irradiance=1 Pmpp=3.6 %cutin=0.1 %cutout=0.1
New PVSystem.PV_115 phases=1 bus1=G2100FK5800_N292373_sec_3.2 kV=0.24 kVA=9.4539 irradiance=1 Pmpp=7.8782 %cutin=0.1 %cutout=0.1
New PVSystem.PV_116 phases=1 bus1=G2100FK5800_N292373_sec_4.2 kV=0.24 kVA=5.76 irradiance=1 Pmpp=4.8 %cutin=0.1 %cutout=0.1
New PVSystem.PV_117 phases=3 conn = delta bus1=G2100FL1200_N292405_sec_3.1.2.3 kV=0.48 kVA=3.24 irradiance=1 Pmpp=2.7 %cutin=0.1 %cutout=0.1
New PVSystem.PV_118 phases=1 bus1=G2100GM9700_N292423_sec_10.3 kV=0.24 kVA=0.48 irradiance=1 Pmpp=0.4 %cutin=0.1 %cutout=0.1
New PVSystem.PV_119 phases=1 bus1=G2100HM3200_N292420_sec_37.3 kV=0.24 kVA=2.04 irradiance=1 Pmpp=1.7 %cutin=0.1 %cutout=0.1
New PVSystem.PV_120 phases=1 bus1=G2100HN5600_N292453_sec_2.3 kV=0.24 kVA=2.28 irradiance=1 Pmpp=1.9 %cutin=0.1 %cutout=0.1
New PVSystem.PV_121 phases=1 bus1=G2100HN5600_N292453_sec_67.3 kV=0.24 kVA=1.32 irradiance=1 Pmpp=1.1 %cutin=0.1 %cutout=0.1
New PVSystem.PV_122 phases=1 bus1=G2100IL1000_N292412_sec_20.3 kV=0.24 kVA=2.88 irradiance=1 Pmpp=2.4 %cutin=0.1 %cutout=0.1
New PVSystem.PV_123 phases=1 bus1=G2100IL1000_N292412_sec_44.3 kV=0.24 kVA=0.48 irradiance=1 Pmpp=0.4 %cutin=0.1 %cutout=0.1
New PVSystem.PV_124 phases=1 bus1=G2100IM6700_N292430_sec_16.3 kV=0.24 kVA=4.08 irradiance=1 Pmpp=3.4 %cutin=0.1 %cutout=0.1
New PVSystem.PV_125 phases=1 bus1=G2100IM6700_N292430_sec_38.3 kV=0.24 kVA=1.8 irradiance=1 Pmpp=1.5 %cutin=0.1 %cutout=0.1
New PVSystem.PV_126 phases=1 bus1=G2100IN2700_N292475_sec_12.3 kV=0.24 kVA=1.68 irradiance=1 Pmpp=1.4 %cutin=0.1 %cutout=0.1
New PVSystem.PV_127 phases=1 bus1=G2100IN2700_N292475_sec_15.3 kV=0.24 kVA=2.16 irradiance=1 Pmpp=1.8 %cutin=0.1 %cutout=0.1
New PVSystem.PV_128 phases=1 bus1=G2100ON6900_N300568_sec_5.1 kV=0.24 kVA=5.28 irradiance=1 Pmpp=4.4 %cutin=0.1 %cutout=0.1
New PVSystem.PV_129 phases=1 bus1=G2100ON7400_N300547_sec_1.1 kV=0.24 kVA=4.68 irradiance=1 Pmpp=3.9 %cutin=0.1 %cutout=0.1
New PVSystem.PV_130 phases=1 bus1=G2100PO8100_N300593_sec_3.1 kV=0.24 kVA=4.44 irradiance=1 Pmpp=3.7 %cutin=0.1 %cutout=0.1
New PVSystem.PV_131 phases=1 bus1=G2100QM2700_N300529_sec_6.2 kV=0.24 kVA=6.12 irradiance=1 Pmpp=5.1 %cutin=0.1 %cutout=0.1
New PVSystem.PV_132 phases=1 bus1=G2100QO6100_N300566_sec_1.2 kV=0.24 kVA=8.64 irradiance=1 Pmpp=7.2 %cutin=0.1 %cutout=0.1
New PVSystem.PV_133 phases=1 bus1=G2100RO6900_N312512_sec_8.3 kV=0.24 kVA=3.36 irradiance=1 Pmpp=2.8 %cutin=0.1 %cutout=0.1
New PVSystem.PV_134 phases=1 bus1=G2100SM8900_N312424_sec_7.2 kV=0.24 kVA=6.6 irradiance=1 Pmpp=5.5 %cutin=0.1 %cutout=0.1
New PVSystem.PV_135 phases=1 bus1=G2101BC7200_N283931_sec_10.1 kV=0.24 kVA=7.56 irradiance=1 Pmpp=6.3 %cutin=0.1 %cutout=0.1
New PVSystem.PV_136 phases=1 bus1=G2101CI7200_N284177_sec_1.3 kV=0.24 kVA=5.0891 irradiance=1 Pmpp=4.2409 %cutin=0.1 %cutout=0.1
New PVSystem.PV_137 phases=1 bus1=G2101CJ7200_N284194_sec_2.1 kV=0.24 kVA=9.24 irradiance=1 Pmpp=7.7 %cutin=0.1 %cutout=0.1
New PVSystem.PV_138 phases=1 bus1=G2101FC9500_N292618_sec_7.1 kV=0.24 kVA=10.08 irradiance=1 Pmpp=8.4 %cutin=0.1 %cutout=0.1
New PVSystem.PV_139 phases=3 conn = delta bus1=G2101GA6800_N292554_sec_1.1.2.3 kV=0.48 kVA=20.52 irradiance=1 Pmpp=17.1 %cutin=0.1 %cutout=0.1
New PVSystem.PV_140 phases=1 bus1=G2101GC3400_N292625_sec_8.1 kV=0.24 kVA=1.32 irradiance=1 Pmpp=1.1 %cutin=0.1 %cutout=0.1
New PVSystem.PV_141 phases=1 bus1=G2101GC3400_N292625_sec_19.1 kV=0.24 kVA=2.88 irradiance=1 Pmpp=2.4 %cutin=0.1 %cutout=0.1
New PVSystem.PV_142 phases=1 bus1=G2101GC9100_N292619_sec_3.1 kV=0.24 kVA=1.2818 irradiance=1 Pmpp=1.0682 %cutin=0.1 %cutout=0.1
New PVSystem.PV_143 phases=1 bus1=G2101HB3800_N292598_sec_11.1 kV=0.24 kVA=3.6 irradiance=1 Pmpp=3 %cutin=0.1 %cutout=0.1
New PVSystem.PV_144 phases=1 bus1=G2101HD1100_N292645_sec_1.1 kV=0.24 kVA=1.56 irradiance=1 Pmpp=1.3 %cutin=0.1 %cutout=0.1
New PVSystem.PV_145 phases=1 bus1=G2101JG9800_N300850_sec_2.1 kV=0.24 kVA=5.88 irradiance=1 Pmpp=4.9 %cutin=0.1 %cutout=0.1
New PVSystem.PV_146 phases=1 bus1=G2101KA2300_N300631_sec_9.1 kV=0.24 kVA=3.24 irradiance=1 Pmpp=2.7 %cutin=0.1 %cutout=0.1
New PVSystem.PV_147 phases=1 bus1=G2101KA2300_N300631_sec_18.1 kV=0.24 kVA=2.52 irradiance=1 Pmpp=2.1 %cutin=0.1 %cutout=0.1
New PVSystem.PV_148 phases=1 bus1=G2101LA3600_N300650_sec_1.1 kV=0.24 kVA=2.88 irradiance=1 Pmpp=2.4 %cutin=0.1 %cutout=0.1
New PVSystem.PV_149 phases=1 bus1=G2101PB7100_N300674_sec_5.1 kV=0.24 kVA=3.8679 irradiance=1 Pmpp=3.2233 %cutin=0.1 %cutout=0.1
New PVSystem.PV_150 phases=1 bus1=G2101PC3200_N300744_sec_1.3 kV=0.24 kVA=5.4 irradiance=1 Pmpp=4.5 %cutin=0.1 %cutout=0.1
New PVSystem.PV_151 phases=1 bus1=G2101PC8800_N300762_sec_6.3 kV=0.24 kVA=3 irradiance=1 Pmpp=2.5 %cutin=0.1 %cutout=0.1
New PVSystem.PV_152 phases=1 bus1=G2101QC6000_N300736_sec_5.3 kV=0.24 kVA=4.08 irradiance=1 Pmpp=3.4 %cutin=0.1 %cutout=0.1
New PVSystem.PV_153 phases=1 bus1=G2101RA5400_N300653_sec_3.2 kV=0.24 kVA=4.44 irradiance=1 Pmpp=3.7 %cutin=0.1 %cutout=0.1
New PVSystem.PV_154 phases=1 bus1=G2101SB1800_N312602_sec_5.1 kV=0.24 kVA=7.68 irradiance=1 Pmpp=6.4 %cutin=0.1 %cutout=0.1
New PVSystem.PV_155 phases=1 bus1=G2102BC7600_N284348_sec_2.1 kV=0.24 kVA=4.6803 irradiance=1 Pmpp=3.9003 %cutin=0.1 %cutout=0.1
New PVSystem.PV_156 phases=1 bus1=G2000TL5600_N283806_sec_3.2 kV=0.24 kVA=6.72 irradiance=1 Pmpp=5.6 %cutin=0.1 %cutout=0.1
New PVSystem.PV_157 phases=1 bus1=G2000XP1100_N283893_sec_2.3 kV=0.24 kVA=3.72 irradiance=1 Pmpp=3.1 %cutin=0.1 %cutout=0.1
New PVSystem.PV_158 phases=1 bus1=G2001RB7800_N274248_sec_3.3 kV=0.24 kVA=4.92 irradiance=1 Pmpp=4.1 %cutin=0.1 %cutout=0.1
New PVSystem.PV_159 phases=1 bus1=G2001RI6300_N1347089_sec_5.1 kV=0.24 kVA=5.64 irradiance=1 Pmpp=4.7 %cutin=0.1 %cutout=0.1
New PVSystem.PV_160 phases=1 bus1=G2001SI2800_N274447_sec_6.1 kV=0.24 kVA=5.64 irradiance=1 Pmpp=4.7 %cutin=0.1 %cutout=0.1
New PVSystem.PV_161 phases=1 bus1=G2001SJ3800_N274488_sec_1.2 kV=0.24 kVA=11.64 irradiance=1 Pmpp=9.7 %cutin=0.1 %cutout=0.1
New PVSystem.PV_162 phases=1 bus1=G2001TC6700_N274291_sec_1.3 kV=0.24 kVA=6.36 irradiance=1 Pmpp=5.3 %cutin=0.1 %cutout=0.1
New PVSystem.PV_163 phases=1 bus1=G2001TD6700_N274321_sec_3.3 kV=0.24 kVA=4.32 irradiance=1 Pmpp=3.6 %cutin=0.1 %cutout=0.1
New PVSystem.PV_164 phases=1 bus1=G2001UB2100_N283965_sec_2.3 kV=0.24 kVA=3.12 irradiance=1 Pmpp=2.6 %cutin=0.1 %cutout=0.1
New PVSystem.PV_165 phases=1 bus1=G2001UB4400_N283904_sec_9.3 kV=0.24 kVA=3.96 irradiance=1 Pmpp=3.3 %cutin=0.1 %cutout=0.1
New PVSystem.PV_166 phases=1 bus1=G2001UC6800_N284008_sec_7.3 kV=0.24 kVA=5.16 irradiance=1 Pmpp=4.3 %cutin=0.1 %cutout=0.1
New PVSystem.PV_167 phases=1 bus1=G2001UD9000_N283927_sec_8.3 kV=0.24 kVA=3.12 irradiance=1 Pmpp=2.6 %cutin=0.1 %cutout=0.1
New PVSystem.PV_168 phases=1 bus1=G2001UH9300_N284152_sec_1.1 kV=0.24 kVA=9.48 irradiance=1 Pmpp=7.9 %cutin=0.1 %cutout=0.1
New PVSystem.PV_169 phases=1 bus1=G2001VA3800_N283914_sec_1.3 kV=0.24 kVA=5.52 irradiance=1 Pmpp=4.6 %cutin=0.1 %cutout=0.1
New PVSystem.PV_170 phases=1 bus1=G2001VD4400_N284006_sec_5.3 kV=0.24 kVA=3.72 irradiance=1 Pmpp=3.1 %cutin=0.1 %cutout=0.1
New PVSystem.PV_171 phases=1 bus1=G2001VK3300_N284221_sec_1.2 kV=0.24 kVA=0.96 irradiance=1 Pmpp=0.8 %cutin=0.1 %cutout=0.1
New PVSystem.PV_172 phases=1 bus1=G2001WC7300_N283986_sec_6.3 kV=0.24 kVA=0 irradiance=1 Pmpp=0 %cutin=0.1 %cutout=0.1
New PVSystem.PV_173 phases=1 bus1=G2001XE9200_N284049_sec_3.3 kV=0.24 kVA=5.88 irradiance=1 Pmpp=4.9 %cutin=0.1 %cutout=0.1
New PVSystem.PV_174 phases=1 bus1=G2001XH0700_N284168_sec_4.3 kV=0.24 kVA=5.04 irradiance=1 Pmpp=4.2 %cutin=0.1 %cutout=0.1
New PVSystem.PV_175 phases=1 bus1=G2001YA0800_N283921_sec_6.3 kV=0.24 kVA=3.96 irradiance=1 Pmpp=3.3 %cutin=0.1 %cutout=0.1
New PVSystem.PV_176 phases=1 bus1=G2100AE4800_N283558_sec_5.3 kV=0.24 kVA=5.64 irradiance=1 Pmpp=4.7 %cutin=0.1 %cutout=0.1
New PVSystem.PV_177 phases=1 bus1=G2100BH6100_N283623_sec_1.3 kV=0.24 kVA=4.92 irradiance=1 Pmpp=4.1 %cutin=0.1 %cutout=0.1
New PVSystem.PV_178 phases=1 bus1=G2100BJ1300_N283735_sec_5.2 kV=0.24 kVA=14.6743 irradiance=1 Pmpp=12.2286 %cutin=0.1 %cutout=0.1
New PVSystem.PV_179 phases=1 bus1=G2100BL2900_N283801_sec_1.1 kV=0.24 kVA=4.2 irradiance=1 Pmpp=3.5 %cutin=0.1 %cutout=0.1
New PVSystem.PV_180 phases=1 bus1=G2100CG0300_N283590_sec_11.3 kV=0.24 kVA=4.32 irradiance=1 Pmpp=3.6 %cutin=0.1 %cutout=0.1
New PVSystem.PV_181 phases=1 bus1=G2100CI4600_N283694_sec_3.2 kV=0.24 kVA=6.5429 irradiance=1 Pmpp=5.4524 %cutin=0.1 %cutout=0.1
New PVSystem.PV_182 phases=1 bus1=G2100DN4800_N283861_sec_9.3 kV=0.24 kVA=1.68 irradiance=1 Pmpp=1.4 %cutin=0.1 %cutout=0.1
New PVSystem.PV_183 phases=1 bus1=G2100DN4800_N283861_sec_37.3 kV=0.24 kVA=3.12 irradiance=1 Pmpp=2.6 %cutin=0.1 %cutout=0.1
New PVSystem.PV_184 phases=1 bus1=G2100DN4800_N283861_sec_59.3 kV=0.24 kVA=3.36 irradiance=1 Pmpp=2.8 %cutin=0.1 %cutout=0.1
New PVSystem.PV_185 phases=1 bus1=G2100DO7000_N283865_sec_2.3 kV=0.24 kVA=2.88 irradiance=1 Pmpp=2.4 %cutin=0.1 %cutout=0.1
New PVSystem.PV_186 phases=1 bus1=G2100EK7600_N292399_sec_1.2 kV=0.24 kVA=5.76 irradiance=1 Pmpp=4.8 %cutin=0.1 %cutout=0.1
New PVSystem.PV_187 phases=1 bus1=G2100EM6500_N292425_sec_1.3 kV=0.24 kVA=5.88 irradiance=1 Pmpp=4.9 %cutin=0.1 %cutout=0.1
New PVSystem.PV_188 phases=1 bus1=G2100EO1300_N292510_sec_5.3 kV=0.24 kVA=1.56 irradiance=1 Pmpp=1.3 %cutin=0.1 %cutout=0.1
New PVSystem.PV_189 phases=1 bus1=G2100EO2100_N292498_sec_13.3 kV=0.24 kVA=1.56 irradiance=1 Pmpp=1.3 %cutin=0.1 %cutout=0.1
New PVSystem.PV_190 phases=3 conn = delta bus1=G2100FH3200_N292302_sec_6.1.2.3 kV=0.48 kVA=123.24 irradiance=1 Pmpp=102.7 %cutin=0.1 %cutout=0.1
New PVSystem.PV_191 phases=3 conn = delta bus1=G2100FN7600_N292486_sec_2.1.2.3 kV=0.48 kVA=2.64 irradiance=1 Pmpp=2.2 %cutin=0.1 %cutout=0.1
New PVSystem.PV_192 phases=3 conn = delta bus1=G2100GL2400_N292406_sec_1.1.2.3 kV=0.48 kVA=174 irradiance=1 Pmpp=145 %cutin=0.1 %cutout=0.1
New PVSystem.PV_193 phases=1 bus1=G2100GM9700_N292423_sec_33.3 kV=0.24 kVA=1.68 irradiance=1 Pmpp=1.4 %cutin=0.1 %cutout=0.1
New PVSystem.PV_194 phases=1 bus1=G2100HM9900_N292433_sec_8.3 kV=0.24 kVA=5.28 irradiance=1 Pmpp=4.4 %cutin=0.1 %cutout=0.1
New PVSystem.PV_195 phases=1 bus1=G2100HN5600_N292453_sec_13.3 kV=0.24 kVA=2.88 irradiance=1 Pmpp=2.4 %cutin=0.1 %cutout=0.1
New PVSystem.PV_196 phases=3 conn = delta bus1=G2100IK6900_N292403_sec_1.1.2.3 kV=0.48 kVA=171.24 irradiance=1 Pmpp=142.7 %cutin=0.1 %cutout=0.1
New PVSystem.PV_197 phases=1 bus1=G2100IL1000_N292412_sec_24.3 kV=0.24 kVA=2.4 irradiance=1 Pmpp=2 %cutin=0.1 %cutout=0.1
New PVSystem.PV_198 phases=1 bus1=G2100IM6700_N292430_sec_34.3 kV=0.24 kVA=1.56 irradiance=1 Pmpp=1.3 %cutin=0.1 %cutout=0.1
New PVSystem.PV_199 phases=1 bus1=G2100IN7700_N292438_sec_16.3 kV=0.24 kVA=3.24 irradiance=1 Pmpp=2.7 %cutin=0.1 %cutout=0.1
New PVSystem.PV_200 phases=1 bus1=G2100IN7700_N292438_sec_21.3 kV=0.24 kVA=3.24 irradiance=1 Pmpp=2.7 %cutin=0.1 %cutout=0.1
...
